<?xml version="1.0" encoding="UTF-8"?>

<!-- generated on 2024-12-13 16:46:52 by Eclipse SUMO netedit Version 1.13.0
<configuration xmlns:xsi="http://www.w3.org/2001/XMLSchema-instance" xsi:noNamespaceSchemaLocation="http://sumo.dlr.de/xsd/netconvertConfiguration.xsd">

    <input>
        <sumo-net-file value="D:\OneDrive%20-%20tongji.edu.cn\桌面\搞新的\LaneAdbisory\MainFile\MainFile.net.xml"/>
    </input>

    <output>
        <output-file value="D:\OneDrive%20-%20tongji.edu.cn\桌面\搞新的\LaneAdbisory\MainFile\MainFile.net.xml"/>
    </output>

    <processing>
        <geometry.min-radius.fix.railways value="false"/>
        <geometry.max-grade.fix value="false"/>
        <offset.disable-normalization value="true"/>
        <lefthand value="false"/>
    </processing>

    <junctions>
        <no-turnarounds value="true"/>
        <junctions.corner-detail value="5"/>
        <junctions.limit-turn-speed value="5.5"/>
        <rectangular-lane-cut value="false"/>
    </junctions>

    <pedestrian>
        <walkingareas value="false"/>
    </pedestrian>

    <report>
        <aggregate-warnings value="5"/>
    </report>

</configuration>
-->

<net version="1.9" junctionCornerDetail="5" limitTurnSpeed="5.50" xmlns:xsi="http://www.w3.org/2001/XMLSchema-instance" xsi:noNamespaceSchemaLocation="http://sumo.dlr.de/xsd/net_file.xsd">

    <location netOffset="0.00,0.00" convBoundary="0.00,0.00,1300.00,0.00" origBoundary="-10000000000.00,-10000000000.00,10000000000.00,10000000000.00" projParameter="!"/>

    <edge id=":J1_0" function="internal">
        <lane id=":J1_0_0" index="0" speed="13.89" length="8.27" shape="1196.00,-8.00 1198.46,-7.50 1200.00,-6.40 1201.54,-5.30 1204.00,-4.80"/>
        <lane id=":J1_0_1" index="1" speed="13.89" length="8.27" shape="1196.00,-4.80 1204.00,-4.80"/>
        <lane id=":J1_0_2" index="2" speed="13.89" length="8.27" shape="1196.00,-1.60 1204.00,-1.60"/>
    </edge>

    <edge id="Input" from="J0" to="J1" priority="-1" length="2000.00">
        <lane id="Input_0" index="0" speed="16.67" length="2000.00" shape="0.00,-8.00 1196.00,-8.00"/>
        <lane id="Input_1" index="1" speed="16.67" length="2000.00" shape="0.00,-4.80 1196.00,-4.80"/>
        <lane id="Input_2" index="2" speed="16.67" length="2000.00" shape="0.00,-1.60 1196.00,-1.60"/>
    </edge>
    <edge id="Output" from="J1" to="J5" priority="-1" length="200.00">
        <lane id="Output_0" index="0" speed="11.11" length="200.00" shape="1204.00,-4.80 1300.00,-4.80"/>
        <lane id="Output_1" index="1" speed="11.11" length="200.00" shape="1204.00,-1.60 1300.00,-1.60"/>
    </edge>

    <junction id="J0" type="dead_end" x="0.00" y="0.00" incLanes="" intLanes="" shape="0.00,0.00 0.00,-9.60"/>
    <junction id="J1" type="priority" x="1200.00" y="0.00" incLanes="Input_0 Input_1 Input_2" intLanes=":J1_0_0 :J1_0_1 :J1_0_2" shape="1204.00,0.00 1204.00,-6.40 1200.97,-7.23 1199.03,-8.77 1197.79,-9.36 1196.00,-9.60 1196.00,0.00">
        <request index="0" response="010" foes="010" cont="0"/>
        <request index="1" response="000" foes="001" cont="0"/>
        <request index="2" response="000" foes="000" cont="0"/>
    </junction>
    <junction id="J5" type="dead_end" x="1300.00" y="0.00" incLanes="Output_0 Output_1" intLanes="" shape="1300.00,-6.40 1300.00,0.00" fringe="outer"/>

    <connection from="Input" to="Output" fromLane="0" toLane="0" via=":J1_0_0" dir="s" state="m"/>
    <connection from="Input" to="Output" fromLane="1" toLane="0" via=":J1_0_1" dir="s" state="M"/>
    <connection from="Input" to="Output" fromLane="2" toLane="1" via=":J1_0_2" dir="s" state="M"/>

    <connection from=":J1_0" to="Output" fromLane="0" toLane="0" dir="s" state="M"/>
    <connection from=":J1_0" to="Output" fromLane="1" toLane="0" dir="s" state="M"/>
    <connection from=":J1_0" to="Output" fromLane="2" toLane="1" dir="s" state="M"/>

</net>
